*EXP.DETAILS: EXPERIMENT for ir72

*GENERAL
@PEOPLE
-99
@ADDRESS
 SUWON, KOREA
@SITE
 SUWON,KOREA 37.27;126.98;34;KOREA

*TREATMENTS                        -------------FACTOR LEVELS------------
@N R O C TNAME.................... CU FL SA IC MP MI MF MR MC MT ME MH SM
 1 1 0 0 Y1991_601                  1  1  0  0  1  1  1  0  0  1  0  0  1
 2 1 0 0 Y1992_601                  1  2  0  0  2  2  2  0  0  2  0  0  2
 3 1 0 0 Y1993_601                  1  3  0  0  3  3  3  0  0  3  0  0  3
 4 1 0 0 Y1994_601                  1  4  0  0  4  4  4  0  0  4  0  0  4
 5 1 0 0 Y1995_601                  1  5  0  0  5  5  5  0  0  5  0  0  5
 6 1 0 0 Y1996_601                  1  6  0  0  6  6  6  0  0  6  0  0  6
 7 1 0 0 Y1997_601                  1  7  0  0  7  7  7  0  0  7  0  0  7
 8 1 0 0 Y1998_601                  1  8  0  0  8  8  8  0  0  8  0  0  8
 9 1 0 0 Y1999_601                  1  9  0  0  9  9  9  0  0  9  0  0  9
10 1 0 0 Y2000_601                  1 10  0  0 10 10 10  0  0 10  0  0 10
11 1 0 0 Y1991_602                  1 11  0  0 11 11 11  0  0 11  0  0 11
12 1 0 0 Y1992_602                  1 12  0  0 12 12 12  0  0 12  0  0 12
13 1 0 0 Y1993_602                  1 13  0  0 13 13 13  0  0 13  0  0 13
14 1 0 0 Y1994_602                  1 14  0  0 14 14 14  0  0 14  0  0 14
15 1 0 0 Y1995_602                  1 15  0  0 15 15 15  0  0 15  0  0 15
16 1 0 0 Y1996_602                  1 16  0  0 16 16 16  0  0 16  0  0 16
17 1 0 0 Y1997_602                  1 17  0  0 17 17 17  0  0 17  0  0 17
18 1 0 0 Y1998_602                  1 18  0  0 18 18 18  0  0 18  0  0 18
19 1 0 0 Y1999_602                  1 19  0  0 19 19 19  0  0 19  0  0 19
20 1 0 0 Y2000_602                  1 20  0  0 20 20 20  0  0 20  0  0 20
21 1 0 0 Y1991_603                  1 21  0  0 21 21 21  0  0 21  0  0 21
22 1 0 0 Y1992_603                  1 22  0  0 22 22 22  0  0 22  0  0 22
23 1 0 0 Y1993_603                  1 23  0  0 23 23 23  0  0 23  0  0 23
24 1 0 0 Y1994_603                  1 24  0  0 24 24 24  0  0 24  0  0 24
25 1 0 0 Y1995_603                  1 25  0  0 25 25 25  0  0 25  0  0 25
26 1 0 0 Y1996_603                  1 26  0  0 26 26 26  0  0 26  0  0 26
27 1 0 0 Y1997_603                  1 27  0  0 27 27 27  0  0 27  0  0 27
28 1 0 0 Y1998_603                  1 28  0  0 28 28 28  0  0 28  0  0 28
29 1 0 0 Y1999_603                  1 29  0  0 29 29 29  0  0 29  0  0 29
30 1 0 0 Y2000_603                  1 30  0  0 30 30 30  0  0 30  0  0 30
31 1 0 0 Y1991_604                  1 31  0  0 31 31 31  0  0 31  0  0 31
32 1 0 0 Y1992_604                  1 32  0  0 32 32 32  0  0 32  0  0 32
33 1 0 0 Y1993_604                  1 33  0  0 33 33 33  0  0 33  0  0 33
34 1 0 0 Y1994_604                  1 34  0  0 34 34 34  0  0 34  0  0 34
35 1 0 0 Y1995_604                  1 35  0  0 35 35 35  0  0 35  0  0 35
36 1 0 0 Y1996_604                  1 36  0  0 36 36 36  0  0 36  0  0 36
37 1 0 0 Y1997_604                  1 37  0  0 37 37 37  0  0 37  0  0 37
38 1 0 0 Y1998_604                  1 38  0  0 38 38 38  0  0 38  0  0 38
39 1 0 0 Y1999_604                  1 39  0  0 39 39 39  0  0 39  0  0 39
40 1 0 0 Y2000_604                  1 40  0  0 40 40 40  0  0 40  0  0 40
41 1 0 0 Y1991_605                  1 41  0  0 41 41 41  0  0 41  0  0 41
42 1 0 0 Y1992_605                  1 42  0  0 42 42 42  0  0 42  0  0 42
43 1 0 0 Y1993_605                  1 43  0  0 43 43 43  0  0 43  0  0 43
44 1 0 0 Y1994_605                  1 44  0  0 44 44 44  0  0 44  0  0 44
45 1 0 0 Y1995_605                  1 45  0  0 45 45 45  0  0 45  0  0 45
46 1 0 0 Y1996_605                  1 46  0  0 46 46 46  0  0 46  0  0 46
47 1 0 0 Y1997_605                  1 47  0  0 47 47 47  0  0 47  0  0 47
48 1 0 0 Y1998_605                  1 48  0  0 48 48 48  0  0 48  0  0 48
49 1 0 0 Y1999_605                  1 49  0  0 49 49 49  0  0 49  0  0 49
50 1 0 0 Y2000_605                  1 50  0  0 50 50 50  0  0 50  0  0 50
51 1 0 0 Y1991_609                  1 51  0  0 51 51 51  0  0 51  0  0 51
52 1 0 0 Y1992_609                  1 52  0  0 52 52 52  0  0 52  0  0 52
53 1 0 0 Y1993_609                  1 53  0  0 53 53 53  0  0 53  0  0 53
54 1 0 0 Y1994_609                  1 54  0  0 54 54 54  0  0 54  0  0 54
55 1 0 0 Y1995_609                  1 55  0  0 55 55 55  0  0 55  0  0 55
56 1 0 0 Y1996_609                  1 56  0  0 56 56 56  0  0 56  0  0 56
57 1 0 0 Y1997_609                  1 57  0  0 57 57 57  0  0 57  0  0 57
58 1 0 0 Y1998_609                  1 58  0  0 58 58 58  0  0 58  0  0 58
59 1 0 0 Y1999_609                  1 59  0  0 59 59 59  0  0 59  0  0 59
60 1 0 0 Y2000_609                  1 60  0  0 60 60 60  0  0 60  0  0 60

*CULTIVARS
@C CR INGENO CNAME
 1 RI IB0118 IR72

*FIELDS
@L ID_FIELD WSTA....  FLSA  FLOB  FLDT  FLDD  FLDS  FLST SLTX  SLDP  ID_SOIL    FLNAME
 1 KRSW0001 X6019101   -99     0 DR000     0     0 00000 L      200  LBRAWLS001 2000
 2 KRSW0002 X6019201   -99     0 DR000     0     0 00000 L      200  LBRAWLS001 2000
 3 KRSW0003 X6019301   -99     0 DR000     0     0 00000 L      200  LBRAWLS001 2000
 4 KRSW0004 X6019401   -99     0 DR000     0     0 00000 L      200  LBRAWLS001 2000
 5 KRSW0005 X6019501   -99     0 DR000     0     0 00000 L      200  LBRAWLS001 2000
 6 KRSW0006 X6019601   -99     0 DR000     0     0 00000 L      200  LBRAWLS001 2000
 7 KRSW0007 X6019701   -99     0 DR000     0     0 00000 L      200  LBRAWLS001 2000
 8 KRSW0008 X6019801   -99     0 DR000     0     0 00000 L      200  LBRAWLS001 2000
 9 KRSW0009 X6019901   -99     0 DR000     0     0 00000 L      200  LBRAWLS001 2000
10 KRSW0010 X6010001   -99     0 DR000     0     0 00000 L      200  LBRAWLS001 2000
11 KRSW0011 X6029101   -99     0 DR000     0     0 00000 L      200  LHRAWLS001 2000
12 KRSW0012 X6029201   -99     0 DR000     0     0 00000 L      200  LHRAWLS001 2000
13 KRSW0013 X6029301   -99     0 DR000     0     0 00000 L      200  LHRAWLS001 2000
14 KRSW0014 X6029401   -99     0 DR000     0     0 00000 L      200  LHRAWLS001 2000
15 KRSW0015 X6029501   -99     0 DR000     0     0 00000 L      200  LHRAWLS001 2000
16 KRSW0016 X6029601   -99     0 DR000     0     0 00000 L      200  LHRAWLS001 2000
17 KRSW0017 X6029701   -99     0 DR000     0     0 00000 L      200  LHRAWLS001 2000
18 KRSW0018 X6029801   -99     0 DR000     0     0 00000 L      200  LHRAWLS001 2000
19 KRSW0019 X6029901   -99     0 DR000     0     0 00000 L      200  LHRAWLS001 2000
20 KRSW0020 X6020001   -99     0 DR000     0     0 00000 L      200  LHRAWLS001 2000
21 KRSW0021 X6039101   -99     0 DR000     0     0 00000 L      200  NJRAWLS001 2000
22 KRSW0022 X6039201   -99     0 DR000     0     0 00000 L      200  NJRAWLS001 2000
23 KRSW0023 X6039301   -99     0 DR000     0     0 00000 L      200  NJRAWLS001 2000
24 KRSW0024 X6039401   -99     0 DR000     0     0 00000 L      200  NJRAWLS001 2000
25 KRSW0025 X6039501   -99     0 DR000     0     0 00000 L      200  NJRAWLS001 2000
26 KRSW0026 X6039601   -99     0 DR000     0     0 00000 L      200  NJRAWLS001 2000
27 KRSW0027 X6039701   -99     0 DR000     0     0 00000 L      200  NJRAWLS001 2000
28 KRSW0028 X6039801   -99     0 DR000     0     0 00000 L      200  NJRAWLS001 2000
29 KRSW0029 X6039901   -99     0 DR000     0     0 00000 L      200  NJRAWLS001 2000
30 KRSW0030 X6030001   -99     0 DR000     0     0 00000 L      200  NJRAWLS001 2000
31 KRSW0031 X6049101   -99     0 DR000     0     0 00000 L      200  MYRAWLS001 2000
32 KRSW0032 X6049201   -99     0 DR000     0     0 00000 L      200  MYRAWLS001 2000
33 KRSW0033 X6049301   -99     0 DR000     0     0 00000 L      200  MYRAWLS001 2000
34 KRSW0034 X6049401   -99     0 DR000     0     0 00000 L      200  MYRAWLS001 2000
35 KRSW0035 X6049501   -99     0 DR000     0     0 00000 L      200  MYRAWLS001 2000
36 KRSW0036 X6049601   -99     0 DR000     0     0 00000 L      200  MYRAWLS001 2000
37 KRSW0037 X6049701   -99     0 DR000     0     0 00000 L      200  MYRAWLS001 2000
38 KRSW0038 X6049801   -99     0 DR000     0     0 00000 L      200  MYRAWLS001 2000
39 KRSW0039 X6049901   -99     0 DR000     0     0 00000 L      200  MYRAWLS001 2000
40 KRSW0040 X6040001   -99     0 DR000     0     0 00000 L      200  MYRAWLS001 2000
41 KRSW0041 X6059101   -99     0 DR000     0     0 00000 L      200  SURAWLS001 2000
42 KRSW0042 X6059201   -99     0 DR000     0     0 00000 L      200  SURAWLS001 2000
43 KRSW0043 X6059301   -99     0 DR000     0     0 00000 L      200  SURAWLS001 2000
44 KRSW0044 X6059401   -99     0 DR000     0     0 00000 L      200  SURAWLS001 2000
45 KRSW0045 X6059501   -99     0 DR000     0     0 00000 L      200  SURAWLS001 2000
46 KRSW0046 X6059601   -99     0 DR000     0     0 00000 L      200  SURAWLS001 2000
47 KRSW0047 X6059701   -99     0 DR000     0     0 00000 L      200  SURAWLS001 2000
48 KRSW0048 X6059801   -99     0 DR000     0     0 00000 L      200  SURAWLS001 2000
49 KRSW0049 X6059901   -99     0 DR000     0     0 00000 L      200  SURAWLS001 2000
50 KRSW0050 X6050001   -99     0 DR000     0     0 00000 L      200  SURAWLS001 2000
51 KRSW0051 X6099101   -99     0 DR000     0     0 00000 L      200  GZRAWLS001 2000
52 KRSW0052 X6099201   -99     0 DR000     0     0 00000 L      200  GZRAWLS001 2000
53 KRSW0053 X6099301   -99     0 DR000     0     0 00000 L      200  GZRAWLS001 2000
54 KRSW0054 X6099401   -99     0 DR000     0     0 00000 L      200  GZRAWLS001 2000
55 KRSW0055 X6099501   -99     0 DR000     0     0 00000 L      200  GZRAWLS001 2000
56 KRSW0056 X6099601   -99     0 DR000     0     0 00000 L      200  GZRAWLS001 2000
57 KRSW0057 X6099701   -99     0 DR000     0     0 00000 L      200  GZRAWLS001 2000
58 KRSW0058 X6099801   -99     0 DR000     0     0 00000 L      200  GZRAWLS001 2000
59 KRSW0059 X6099901   -99     0 DR000     0     0 00000 L      200  GZRAWLS001 2000
60 KRSW0060 X6090001   -99     0 DR000     0     0 00000 L      200  GZRAWLS001 2000
@L ...........XCRD ...........YCRD .....ELEV .............AREA .SLEN .FLWR .SLAS FLHST FHDUR
 1             -99             -99       -99                 0     0     0     0   -99   -99
 2             -99             -99       -99                 0     0     0     0   -99   -99
 3             -99             -99       -99                 0     0     0     0   -99   -99
 4             -99             -99       -99                 0     0     0     0   -99   -99
 5             -99             -99       -99                 0     0     0     0   -99   -99
 6             -99             -99       -99                 0     0     0     0   -99   -99
 7             -99             -99       -99                 0     0     0     0   -99   -99
 8             -99             -99       -99                 0     0     0     0   -99   -99
 9             -99             -99       -99                 0     0     0     0   -99   -99
10             -99             -99       -99                 0     0     0     0   -99   -99
11             -99             -99       -99                 0     0     0     0   -99   -99
12             -99             -99       -99                 0     0     0     0   -99   -99
13             -99             -99       -99                 0     0     0     0   -99   -99
14             -99             -99       -99                 0     0     0     0   -99   -99
15             -99             -99       -99                 0     0     0     0   -99   -99
16             -99             -99       -99                 0     0     0     0   -99   -99
17             -99             -99       -99                 0     0     0     0   -99   -99
18             -99             -99       -99                 0     0     0     0   -99   -99
19             -99             -99       -99                 0     0     0     0   -99   -99
20             -99             -99       -99                 0     0     0     0   -99   -99
21             -99             -99       -99                 0     0     0     0   -99   -99
22             -99             -99       -99                 0     0     0     0   -99   -99
23             -99             -99       -99                 0     0     0     0   -99   -99
24             -99             -99       -99                 0     0     0     0   -99   -99
25             -99             -99       -99                 0     0     0     0   -99   -99
26             -99             -99       -99                 0     0     0     0   -99   -99
27             -99             -99       -99                 0     0     0     0   -99   -99
28             -99             -99       -99                 0     0     0     0   -99   -99
29             -99             -99       -99                 0     0     0     0   -99   -99
30             -99             -99       -99                 0     0     0     0   -99   -99
31             -99             -99       -99                 0     0     0     0   -99   -99
32             -99             -99       -99                 0     0     0     0   -99   -99
33             -99             -99       -99                 0     0     0     0   -99   -99
34             -99             -99       -99                 0     0     0     0   -99   -99
35             -99             -99       -99                 0     0     0     0   -99   -99
36             -99             -99       -99                 0     0     0     0   -99   -99
37             -99             -99       -99                 0     0     0     0   -99   -99
38             -99             -99       -99                 0     0     0     0   -99   -99
39             -99             -99       -99                 0     0     0     0   -99   -99
40             -99             -99       -99                 0     0     0     0   -99   -99
41             -99             -99       -99                 0     0     0     0   -99   -99
42             -99             -99       -99                 0     0     0     0   -99   -99
43             -99             -99       -99                 0     0     0     0   -99   -99
44             -99             -99       -99                 0     0     0     0   -99   -99
45             -99             -99       -99                 0     0     0     0   -99   -99
46             -99             -99       -99                 0     0     0     0   -99   -99
47             -99             -99       -99                 0     0     0     0   -99   -99
48             -99             -99       -99                 0     0     0     0   -99   -99
49             -99             -99       -99                 0     0     0     0   -99   -99
50             -99             -99       -99                 0     0     0     0   -99   -99
51             -99             -99       -99                 0     0     0     0   -99   -99
52             -99             -99       -99                 0     0     0     0   -99   -99
53             -99             -99       -99                 0     0     0     0   -99   -99
54             -99             -99       -99                 0     0     0     0   -99   -99
55             -99             -99       -99                 0     0     0     0   -99   -99
56             -99             -99       -99                 0     0     0     0   -99   -99
57             -99             -99       -99                 0     0     0     0   -99   -99
58             -99             -99       -99                 0     0     0     0   -99   -99
59             -99             -99       -99                 0     0     0     0   -99   -99
60             -99             -99       -99                 0     0     0     0   -99   -99

*PLANTING DETAILS
@P PDATE EDATE  PPOP  PPOE  PLME  PLDS  PLRS  PLRD  PLDP  PLWT  PAGE  PENV  PLPH  SPRL                        PLNAME
 1 91015   -99 22.22 22.22     T     R    30     0     5     0    14    25     3     0                        15
 2 92015   -99 22.22 22.22     T     R    30     0     5     0    14    25     3     0                        15
 3 93015   -99 22.22 22.22     T     R    30     0     5     0    14    25     3     0                        15
 4 94015   -99 22.22 22.22     T     R    30     0     5     0    14    25     3     0                        15
 5 95015   -99 22.22 22.22     T     R    30     0     5     0    14    25     3     0                        15
 6 96015   -99 22.22 22.22     T     R    30     0     5     0    14    25     3     0                        15
 7 97015   -99 22.22 22.22     T     R    30     0     5     0    14    25     3     0                        15
 8 98015   -99 22.22 22.22     T     R    30     0     5     0    14    25     3     0                        15
 9 99015   -99 22.22 22.22     T     R    30     0     5     0    14    25     3     0                        15
10 00015   -99 22.22 22.22     T     R    30     0     5     0    14    25     3     0                        15
11 91176   -99 22.22 22.22     T     R    30     0     5     0    24    25     3     0                        176
12 92176   -99 22.22 22.22     T     R    30     0     5     0    24    25     3     0                        176
13 93176   -99 22.22 22.22     T     R    30     0     5     0    24    25     3     0                        176
14 94176   -99 22.22 22.22     T     R    30     0     5     0    24    25     3     0                        176
15 95176   -99 22.22 22.22     T     R    30     0     5     0    24    25     3     0                        176
16 96176   -99 22.22 22.22     T     R    30     0     5     0    24    25     3     0                        176
17 97176   -99 22.22 22.22     T     R    30     0     5     0    24    25     3     0                        176
18 98176   -99 22.22 22.22     T     R    30     0     5     0    24    25     3     0                        176
19 99176   -99 22.22 22.22     T     R    30     0     5     0    24    25     3     0                        176
20 00176   -99 22.22 22.22     T     R    30     0     5     0    24    25     3     0                        176
21 91179   -99 22.22 22.22     T     R    30     0     5     0    21    25     3     0                        179
22 92179   -99 22.22 22.22     T     R    30     0     5     0    21    25     3     0                        179
23 93179   -99 22.22 22.22     T     R    30     0     5     0    21    25     3     0                        179
24 94179   -99 22.22 22.22     T     R    30     0     5     0    21    25     3     0                        179
25 95179   -99 22.22 22.22     T     R    30     0     5     0    21    25     3     0                        179
26 96179   -99 22.22 22.22     T     R    30     0     5     0    21    25     3     0                        179
27 97179   -99 22.22 22.22     T     R    30     0     5     0    21    25     3     0                        179
28 98179   -99 22.22 22.22     T     R    30     0     5     0    21    25     3     0                        179
29 99179   -99 22.22 22.22     T     R    30     0     5     0    21    25     3     0                        179
30 00179   -99 22.22 22.22     T     R    30     0     5     0    21    25     3     0                        179
31 91156   -99 22.22 22.22     T     R    30     0     5     0    26    25     3     0                        156
32 92156   -99 22.22 22.22     T     R    30     0     5     0    26    25     3     0                        156
33 93156   -99 22.22 22.22     T     R    30     0     5     0    26    25     3     0                        156
34 94156   -99 22.22 22.22     T     R    30     0     5     0    26    25     3     0                        156
35 95156   -99 22.22 22.22     T     R    30     0     5     0    26    25     3     0                        156
36 96156   -99 22.22 22.22     T     R    30     0     5     0    26    25     3     0                        156
37 97156   -99 22.22 22.22     T     R    30     0     5     0    26    25     3     0                        156
38 98156   -99 22.22 22.22     T     R    30     0     5     0    26    25     3     0                        156
39 99156   -99 22.22 22.22     T     R    30     0     5     0    26    25     3     0                        156
40 00156   -99 22.22 22.22     T     R    30     0     5     0    26    25     3     0                        156
41 91140   -99 22.22 22.22     T     R    30     0     5     0    30    25     3     0                        140
42 92140   -99 22.22 22.22     T     R    30     0     5     0    30    25     3     0                        140
43 93140   -99 22.22 22.22     T     R    30     0     5     0    30    25     3     0                        140
44 94140   -99 22.22 22.22     T     R    30     0     5     0    30    25     3     0                        140
45 95140   -99 22.22 22.22     T     R    30     0     5     0    30    25     3     0                        140
46 96140   -99 22.22 22.22     T     R    30     0     5     0    30    25     3     0                        140
47 97140   -99 22.22 22.22     T     R    30     0     5     0    30    25     3     0                        140
48 98140   -99 22.22 22.22     T     R    30     0     5     0    30    25     3     0                        140
49 99140   -99 22.22 22.22     T     R    30     0     5     0    30    25     3     0                        140
50 00140   -99 22.22 22.22     T     R    30     0     5     0    30    25     3     0                        140
51 91211   -99 22.22 22.22     T     R    30     0     5     0    30    25     3     0                        211
52 92211   -99 22.22 22.22     T     R    30     0     5     0    30    25     3     0                        211
53 93211   -99 22.22 22.22     T     R    30     0     5     0    30    25     3     0                        211
54 94211   -99 22.22 22.22     T     R    30     0     5     0    30    25     3     0                        211
55 95211   -99 22.22 22.22     T     R    30     0     5     0    30    25     3     0                        211
56 96211   -99 22.22 22.22     T     R    30     0     5     0    30    25     3     0                        211
57 97211   -99 22.22 22.22     T     R    30     0     5     0    30    25     3     0                        211
58 98211   -99 22.22 22.22     T     R    30     0     5     0    30    25     3     0                        211
59 99211   -99 22.22 22.22     T     R    30     0     5     0    30    25     3     0                        211
60 00211   -99 22.22 22.22     T     R    30     0     5     0    30    25     3     0                        211

*IRRIGATION AND WATER MANAGEMENT
@I  EFIR  IDEP  ITHR  IEPT  IOFF  IAME  IAMT IRNAME
 1     1    50    50   100 IB001 IR001   100 -99
@I IDATE  IROP IRVAL
 1 91012 IR010   200
 1 91012 IR008     5
 1 91012 IR009   250
 1 91012 IR011    50
@I  EFIR  IDEP  ITHR  IEPT  IOFF  IAME  IAMT IRNAME
 2     1    50    50   100 IB001 IR001   100 -99
@I IDATE  IROP IRVAL
 2 92012 IR010   200
 2 92012 IR008     5
 2 92012 IR009   250
 2 92012 IR011    50
@I  EFIR  IDEP  ITHR  IEPT  IOFF  IAME  IAMT IRNAME
 3     1    50    50   100 IB001 IR001   100 -99
@I IDATE  IROP IRVAL
 3 93012 IR010   200
 3 93012 IR008     5
 3 93012 IR009   250
 3 93012 IR011    50
@I  EFIR  IDEP  ITHR  IEPT  IOFF  IAME  IAMT IRNAME
 4     1    50    50   100 IB001 IR001   100 -99
@I IDATE  IROP IRVAL
 4 94012 IR010   200
 4 94012 IR008     5
 4 94012 IR009   250
 4 94012 IR011    50
@I  EFIR  IDEP  ITHR  IEPT  IOFF  IAME  IAMT IRNAME
 5     1    50    50   100 IB001 IR001   100 -99
@I IDATE  IROP IRVAL
 5 95012 IR010   200
 5 95012 IR008     5
 5 95012 IR009   250
 5 95012 IR011    50
@I  EFIR  IDEP  ITHR  IEPT  IOFF  IAME  IAMT IRNAME
 6     1    50    50   100 IB001 IR001   100 -99
@I IDATE  IROP IRVAL
 6 96012 IR010   200
 6 96012 IR008     5
 6 96012 IR009   250
 6 96012 IR011    50
@I  EFIR  IDEP  ITHR  IEPT  IOFF  IAME  IAMT IRNAME
 7     1    50    50   100 IB001 IR001   100 -99
@I IDATE  IROP IRVAL
 7 97012 IR010   200
 7 97012 IR008     5
 7 97012 IR009   250
 7 97012 IR011    50
@I  EFIR  IDEP  ITHR  IEPT  IOFF  IAME  IAMT IRNAME
 8     1    50    50   100 IB001 IR001   100 -99
@I IDATE  IROP IRVAL
 8 98012 IR010   200
 8 98012 IR008     5
 8 98012 IR009   250
 8 98012 IR011    50
@I  EFIR  IDEP  ITHR  IEPT  IOFF  IAME  IAMT IRNAME
 9     1    50    50   100 IB001 IR001   100 -99
@I IDATE  IROP IRVAL
 9 99012 IR010   200
 9 99012 IR008     5
 9 99012 IR009   250
 9 99012 IR011    50
@I  EFIR  IDEP  ITHR  IEPT  IOFF  IAME  IAMT IRNAME
10     1    50    50   100 IB001 IR001   100 -99
@I IDATE  IROP IRVAL
10 00012 IR010   200
10 00012 IR008     5
10 00012 IR009   250
10 00012 IR011    50
@I  EFIR  IDEP  ITHR  IEPT  IOFF  IAME  IAMT IRNAME
11     1    50    50   100 IB001 IR001   100 -99
@I IDATE  IROP IRVAL
11 91173 IR010   200
11 91173 IR008     5
11 91173 IR009   250
11 91173 IR011    50
@I  EFIR  IDEP  ITHR  IEPT  IOFF  IAME  IAMT IRNAME
12     1    50    50   100 IB001 IR001   100 -99
@I IDATE  IROP IRVAL
12 92173 IR010   200
12 92173 IR008     5
12 92173 IR009   250
12 92173 IR011    50
@I  EFIR  IDEP  ITHR  IEPT  IOFF  IAME  IAMT IRNAME
13     1    50    50   100 IB001 IR001   100 -99
@I IDATE  IROP IRVAL
13 93173 IR010   200
13 93173 IR008     5
13 93173 IR009   250
13 93173 IR011    50
@I  EFIR  IDEP  ITHR  IEPT  IOFF  IAME  IAMT IRNAME
14     1    50    50   100 IB001 IR001   100 -99
@I IDATE  IROP IRVAL
14 94173 IR010   200
14 94173 IR008     5
14 94173 IR009   250
14 94173 IR011    50
@I  EFIR  IDEP  ITHR  IEPT  IOFF  IAME  IAMT IRNAME
15     1    50    50   100 IB001 IR001   100 -99
@I IDATE  IROP IRVAL
15 95173 IR010   200
15 95173 IR008     5
15 95173 IR009   250
15 95173 IR011    50
@I  EFIR  IDEP  ITHR  IEPT  IOFF  IAME  IAMT IRNAME
16     1    50    50   100 IB001 IR001   100 -99
@I IDATE  IROP IRVAL
16 96173 IR010   200
16 96173 IR008     5
16 96173 IR009   250
16 96173 IR011    50
@I  EFIR  IDEP  ITHR  IEPT  IOFF  IAME  IAMT IRNAME
17     1    50    50   100 IB001 IR001   100 -99
@I IDATE  IROP IRVAL
17 97173 IR010   200
17 97173 IR008     5
17 97173 IR009   250
17 97173 IR011    50
@I  EFIR  IDEP  ITHR  IEPT  IOFF  IAME  IAMT IRNAME
18     1    50    50   100 IB001 IR001   100 -99
@I IDATE  IROP IRVAL
18 98173 IR010   200
18 98173 IR008     5
18 98173 IR009   250
18 98173 IR011    50
@I  EFIR  IDEP  ITHR  IEPT  IOFF  IAME  IAMT IRNAME
19     1    50    50   100 IB001 IR001   100 -99
@I IDATE  IROP IRVAL
19 99173 IR010   200
19 99173 IR008     5
19 99173 IR009   250
19 99173 IR011    50
@I  EFIR  IDEP  ITHR  IEPT  IOFF  IAME  IAMT IRNAME
20     1    50    50   100 IB001 IR001   100 -99
@I IDATE  IROP IRVAL
20 00173 IR010   200
20 00173 IR008     5
20 00173 IR009   250
20 00173 IR011    50
@I  EFIR  IDEP  ITHR  IEPT  IOFF  IAME  IAMT IRNAME
21     1    50    50   100 IB001 IR001   100 -99
@I IDATE  IROP IRVAL
21 91176 IR010   200
21 91176 IR008     5
21 91176 IR009   250
21 91176 IR011    50
@I  EFIR  IDEP  ITHR  IEPT  IOFF  IAME  IAMT IRNAME
22     1    50    50   100 IB001 IR001   100 -99
@I IDATE  IROP IRVAL
22 92176 IR010   200
22 92176 IR008     5
22 92176 IR009   250
22 92176 IR011    50
@I  EFIR  IDEP  ITHR  IEPT  IOFF  IAME  IAMT IRNAME
23     1    50    50   100 IB001 IR001   100 -99
@I IDATE  IROP IRVAL
23 93176 IR010   200
23 93176 IR008     5
23 93176 IR009   250
23 93176 IR011    50
@I  EFIR  IDEP  ITHR  IEPT  IOFF  IAME  IAMT IRNAME
24     1    50    50   100 IB001 IR001   100 -99
@I IDATE  IROP IRVAL
24 94176 IR010   200
24 94176 IR008     5
24 94176 IR009   250
24 94176 IR011    50
@I  EFIR  IDEP  ITHR  IEPT  IOFF  IAME  IAMT IRNAME
25     1    50    50   100 IB001 IR001   100 -99
@I IDATE  IROP IRVAL
25 95176 IR010   200
25 95176 IR008     5
25 95176 IR009   250
25 95176 IR011    50
@I  EFIR  IDEP  ITHR  IEPT  IOFF  IAME  IAMT IRNAME
26     1    50    50   100 IB001 IR001   100 -99
@I IDATE  IROP IRVAL
26 96176 IR010   200
26 96176 IR008     5
26 96176 IR009   250
26 96176 IR011    50
@I  EFIR  IDEP  ITHR  IEPT  IOFF  IAME  IAMT IRNAME
27     1    50    50   100 IB001 IR001   100 -99
@I IDATE  IROP IRVAL
27 97176 IR010   200
27 97176 IR008     5
27 97176 IR009   250
27 97176 IR011    50
@I  EFIR  IDEP  ITHR  IEPT  IOFF  IAME  IAMT IRNAME
28     1    50    50   100 IB001 IR001   100 -99
@I IDATE  IROP IRVAL
28 98176 IR010   200
28 98176 IR008     5
28 98176 IR009   250
28 98176 IR011    50
@I  EFIR  IDEP  ITHR  IEPT  IOFF  IAME  IAMT IRNAME
29     1    50    50   100 IB001 IR001   100 -99
@I IDATE  IROP IRVAL
29 99176 IR010   200
29 99176 IR008     5
29 99176 IR009   250
29 99176 IR011    50
@I  EFIR  IDEP  ITHR  IEPT  IOFF  IAME  IAMT IRNAME
30     1    50    50   100 IB001 IR001   100 -99
@I IDATE  IROP IRVAL
30 00176 IR010   200
30 00176 IR008     5
30 00176 IR009   250
30 00176 IR011    50
@I  EFIR  IDEP  ITHR  IEPT  IOFF  IAME  IAMT IRNAME
31     1    50    50   100 IB001 IR001   100 -99
@I IDATE  IROP IRVAL
31 91153 IR010   200
31 91153 IR008     5
31 91153 IR009   250
31 91153 IR011    50
@I  EFIR  IDEP  ITHR  IEPT  IOFF  IAME  IAMT IRNAME
32     1    50    50   100 IB001 IR001   100 -99
@I IDATE  IROP IRVAL
32 92153 IR010   200
32 92153 IR008     5
32 92153 IR009   250
32 92153 IR011    50
@I  EFIR  IDEP  ITHR  IEPT  IOFF  IAME  IAMT IRNAME
33     1    50    50   100 IB001 IR001   100 -99
@I IDATE  IROP IRVAL
33 93153 IR010   200
33 93153 IR008     5
33 93153 IR009   250
33 93153 IR011    50
@I  EFIR  IDEP  ITHR  IEPT  IOFF  IAME  IAMT IRNAME
34     1    50    50   100 IB001 IR001   100 -99
@I IDATE  IROP IRVAL
34 94153 IR010   200
34 94153 IR008     5
34 94153 IR009   250
34 94153 IR011    50
@I  EFIR  IDEP  ITHR  IEPT  IOFF  IAME  IAMT IRNAME
35     1    50    50   100 IB001 IR001   100 -99
@I IDATE  IROP IRVAL
35 95153 IR010   200
35 95153 IR008     5
35 95153 IR009   250
35 95153 IR011    50
@I  EFIR  IDEP  ITHR  IEPT  IOFF  IAME  IAMT IRNAME
36     1    50    50   100 IB001 IR001   100 -99
@I IDATE  IROP IRVAL
36 96153 IR010   200